*HEADING
rotating annular disk, centrifugal load (ccx C3D20, SI)
*NODE
2, 0.200000000, 0.000000000, 0.000000000
3, 1.000000000, 0.000000000, 0.000000000
4, 0.000000000, 1.000000000, 0.000000000
5, 0.000000000, 0.200000000, 0.000000000
6, 0.200000000, 0.000000000, 0.050000000
7, 1.000000000, 0.000000000, 0.050000000
9, 0.000000000, 1.000000000, 0.050000000
10, 0.000000000, 0.200000000, 0.050000000
11, 0.216666667, 0.000000000, 0.000000000
12, 0.233333333, 0.000000000, 0.000000000
13, 0.250000000, 0.000000000, 0.000000000
14, 0.266666667, 0.000000000, 0.000000000
15, 0.283333333, 0.000000000, 0.000000000
16, 0.300000000, 0.000000000, 0.000000000
17, 0.316666667, 0.000000000, 0.000000000
18, 0.333333333, 0.000000000, 0.000000000
19, 0.350000000, 0.000000000, 0.000000000
20, 0.366666667, 0.000000000, 0.000000000
21, 0.383333333, 0.000000000, 0.000000000
22, 0.400000000, 0.000000000, 0.000000000
** ... 26097 like lines cut
*ELEMENT,TYPE=C3D20,ELSET=EALL
5395, 2, 11, 783, 342, 771, 7504, 14981, 8117,
     58, 2992, 2993, 390, 7552, 17191, 17192, 8259, 772, 7551, 17190, 8256
5396, 771, 7504, 14981, 8117, 6, 391, 8260, 722,
     7552, 17191, 17192, 8259, 438, 10469, 10470, 770, 773, 7553, 17193, 8258
5397, 342, 783, 784, 341, 8117, 14981, 14982, 8116,
     2993, 2994, 2995, 389, 17192, 17195, 17196, 8257, 8256, 17190, 17194, 8253
5398, 8117, 14981, 14982, 8116, 722, 8260, 8261, 721,
     17192, 17195, 17196, 8257, 10470, 10471, 10472, 769, 8258, 17193, 17197, 8255
5399, 341, 784, 785, 340, 8116, 14982, 14983, 8115,
     2995, 2996, 2997, 388, 17196, 17199, 17200, 8254, 8253, 17194, 17198, 8250
5400, 8116, 14982, 14983, 8115, 721, 8261, 8262, 720,
     17196, 17199, 17200, 8254, 10472, 10473, 10474, 768, 8255, 17197, 17201, 8252
5401, 340, 785, 786, 339, 8115, 14983, 14984, 8114,
     2997, 2998, 2999, 387, 17200, 17203, 17204, 8251, 8250, 17198, 17202, 8247
5402, 8115, 14983, 14984, 8114, 720, 8262, 8263, 719,
     17200, 17203, 17204, 8251, 10474, 10475, 10476, 767, 8252, 17201, 17205, 8249
5403, 339, 786, 787, 338, 8114, 14984, 14985, 8113,
     2999, 3000, 3001, 386, 17204, 17207, 17208, 8248, 8247, 17202, 17206, 8244
5404, 8114, 14984, 14985, 8113, 719, 8263, 8264, 718,
     17204, 17207, 17208, 8248, 10476, 10477, 10478, 766, 8249, 17205, 17209, 8246
** ... 9196 like lines cut
*MATERIAL,NAME=STEEL
*ELASTIC
200000000000.0, 0.3
*DENSITY
7850.0
*SOLID SECTION,ELSET=EALL,MATERIAL=STEEL
*BOUNDARY
2, 2, 2
2, 3, 3
3, 2, 2
3, 3, 3
4, 1, 1
4, 3, 3
5, 1, 1
5, 3, 3
6, 2, 2
7, 2, 2
9, 1, 1
10, 1, 1
11, 2, 2
11, 3, 3
12, 2, 2
12, 3, 3
13, 2, 2
13, 3, 3
14, 2, 2
14, 3, 3
** ... 7863 like lines cut
*STEP
*STATIC
*DLOAD
EALL, CENTRIF, 10000.0, 0., 0., 0., 0., 0., 1.
*EL FILE
S
*END STEP
