*HEADING
NAFEMS LE10 thick plate pressure - real ccx benchmark solve (meters/Pa).
*NODE,NSET=NALL
       1,  0.000000000e+00,  0.000000000e+00, -3.000000000e-01
       2,  2.000000000e+00,  0.000000000e+00, -3.000000000e-01
       3,  0.000000000e+00,  1.000000000e+00, -3.000000000e-01
       4,  3.250000000e+00,  0.000000000e+00, -3.000000000e-01
       5,  0.000000000e+00,  2.750000000e+00, -3.000000000e-01
       6,  2.000000000e+00,  0.000000000e+00,  3.000000000e-01
       7,  3.250000000e+00,  0.000000000e+00,  3.000000000e-01
       8,  0.000000000e+00,  0.000000000e+00,  3.000000000e-01
       9,  0.000000000e+00,  2.750000000e+00,  3.000000000e-01
      10,  0.000000000e+00,  1.000000000e+00,  3.000000000e-01
      11,  1.996347800e+00,  6.040584046e-02, -3.000000000e-01
      12,  1.985558716e+00,  1.199547666e-01, -3.000000000e-01
      13,  1.968096027e+00,  1.779030822e-01, -3.000000000e-01
      14,  1.944621176e+00,  2.336923633e-01, -3.000000000e-01
      15,  1.915881434e+00,  2.869661705e-01, -3.000000000e-01
      16,  1.882619025e+00,  3.375446660e-01, -3.000000000e-01
      17,  1.845515327e+00,  3.853807138e-01, -3.000000000e-01
      18,  1.805165686e+00,  4.305162153e-01, -3.000000000e-01
      19,  1.762075373e+00,  4.730460813e-01, -3.000000000e-01
      20,  1.716665973e+00,  5.130930558e-01, -3.000000000e-01
** ... 22795 like lines cut
*ELEMENT,TYPE=C3D20,ELSET=BODY
2595, 2, 169, 527, 11, 483, 2808, 6965, 4055,
     188, 1268, 1269, 50, 2904, 10671, 10672, 4250, 488, 2903, 10670, 4251
2596, 483, 2808, 6965, 4055, 484, 2809, 6966, 4056,
     2904, 10671, 10672, 4250, 2906, 10674, 10675, 4252, 489, 2905, 10673, 4253
2597, 484, 2809, 6966, 4056, 485, 2810, 6967, 4057,
     2906, 10674, 10675, 4252, 2908, 10677, 10678, 4254, 490, 2907, 10676, 4255
2598, 485, 2810, 6967, 4057, 486, 2811, 6968, 4058,
     2908, 10677, 10678, 4254, 2910, 10680, 10681, 4256, 491, 2909, 10679, 4257
2599, 486, 2811, 6968, 4058, 487, 2812, 6969, 4059,
     2910, 10680, 10681, 4256, 2912, 10683, 10684, 4258, 492, 2911, 10682, 4259
2600, 487, 2812, 6969, 4059, 6, 247, 4684, 442,
     2912, 10683, 10684, 4258, 266, 5425, 5426, 482, 493, 2913, 10685, 4260
2601, 11, 527, 528, 12, 4055, 6965, 6970, 4060,
     1269, 1270, 1271, 51, 10672, 10687, 10688, 4261, 4251, 10670, 10686, 4262
2602, 4055, 6965, 6970, 4060, 4056, 6966, 6971, 4061,
     10672, 10687, 10688, 4261, 10675, 10690, 10691, 4263, 4253, 10673, 10689, 4264
2603, 4056, 6966, 6971, 4061, 4057, 6967, 6972, 4062,
     10675, 10690, 10691, 4263, 10678, 10693, 10694, 4265, 4255, 10676, 10692, 4266
2604, 4057, 6967, 6972, 4062, 4058, 6968, 6973, 4063,
     10678, 10693, 10694, 4265, 10681, 10696, 10697, 4267, 4257, 10679, 10695, 4268
** ... 9580 like lines cut
*NSET,NSET=XSYM
1, 3, 5, 8, 9, 10, 208, 209, 210, 211,
212, 213, 214, 215, 216, 217, 218, 219, 220, 221,
222, 223, 224, 225, 226, 227, 228, 229, 230, 231,
232, 233, 234, 235, 236, 237, 238, 239, 240, 241,
242, 243, 244, 245, 246, 365, 366, 367, 368, 369,
370, 371, 372, 373, 374, 375, 376, 377, 378, 379,
380, 381, 382, 383, 384, 385, 386, 387, 388, 389,
390, 391, 392, 393, 394, 395, 396, 397, 398, 399,
400, 401, 402, 403, 505, 506, 507, 508, 509, 510,
511, 512, 513, 514, 515, 516, 517, 518, 519, 520,
521, 522, 523, 524, 525, 526, 3746, 3747, 3748, 3749,
3750, 3751, 3752, 3753, 3754, 3755, 3756, 3757, 3758, 3759,
3760, 3761, 3762, 3763, 3764, 3765, 3766, 3767, 3768, 3769,
3770, 3771, 3772, 3773, 3774, 3775, 3776, 3777, 3778, 3779,
3780, 3781, 3782, 3783, 3784, 3785, 3786, 3787, 3788, 3789,
3790, 3791, 3792, 3793, 3794, 3795, 3796, 3797, 3798, 3799,
3800, 3801, 3802, 3803, 3804, 3805, 3806, 3807, 3808, 3809,
3810, 3811, 3812, 3813, 3814, 3815, 3816, 3817, 3818, 3819,
3820, 3821, 3822, 3823, 3824, 3825, 3826, 3827, 3828, 3829,
3830, 3831, 3832, 3833, 3834, 3835, 3836, 3837, 3838, 3839,
** ... 22 like lines cut
*NSET,NSET=YSYM
1, 2, 4, 6, 7, 8, 169, 170, 171, 172,
173, 174, 175, 176, 177, 178, 179, 180, 181, 182,
183, 184, 185, 186, 187, 188, 189, 190, 191, 192,
193, 194, 195, 196, 197, 198, 199, 200, 201, 202,
203, 204, 205, 206, 207, 247, 248, 249, 250, 251,
252, 253, 254, 255, 256, 257, 258, 259, 260, 261,
262, 263, 264, 265, 266, 267, 268, 269, 270, 271,
272, 273, 274, 275, 276, 277, 278, 279, 280, 281,
282, 283, 284, 285, 483, 484, 485, 486, 487, 488,
489, 490, 491, 492, 493, 494, 495, 496, 497, 498,
499, 500, 501, 502, 503, 504, 2808, 2809, 2810, 2811,
2812, 2813, 2814, 2815, 2816, 2817, 2818, 2819, 2820, 2821,
2822, 2823, 2824, 2825, 2826, 2827, 2828, 2829, 2830, 2831,
2832, 2833, 2834, 2835, 2836, 2837, 2838, 2839, 2840, 2841,
2842, 2843, 2844, 2845, 2846, 2847, 2848, 2849, 2850, 2851,
2852, 2853, 2854, 2855, 2856, 2857, 2858, 2859, 2860, 2861,
2862, 2863, 2864, 2865, 2866, 2867, 2868, 2869, 2870, 2871,
2872, 2873, 2874, 2875, 2876, 2877, 2878, 2879, 2880, 2881,
2882, 2883, 2884, 2885, 2886, 2887, 2888, 2889, 2890, 2891,
2892, 2893, 2894, 2895, 2896, 2897, 2898, 2899, 2900, 2901,
** ... 22 like lines cut
*NSET,NSET=OUTER
4, 5, 7, 9, 90, 91, 92, 93, 94, 95,
96, 97, 98, 99, 100, 101, 102, 103, 104, 105,
106, 107, 108, 109, 110, 111, 112, 113, 114, 115,
116, 117, 118, 119, 120, 121, 122, 123, 124, 125,
126, 127, 128, 129, 130, 131, 132, 133, 134, 135,
136, 137, 138, 139, 140, 141, 142, 143, 144, 145,
146, 147, 148, 149, 150, 151, 152, 153, 154, 155,
156, 157, 158, 159, 160, 161, 162, 163, 164, 165,
166, 167, 168, 286, 287, 288, 289, 290, 291, 292,
293, 294, 295, 296, 297, 298, 299, 300, 301, 302,
303, 304, 305, 306, 307, 308, 309, 310, 311, 312,
313, 314, 315, 316, 317, 318, 319, 320, 321, 322,
323, 324, 325, 326, 327, 328, 329, 330, 331, 332,
333, 334, 335, 336, 337, 338, 339, 340, 341, 342,
343, 344, 345, 346, 347, 348, 349, 350, 351, 352,
353, 354, 355, 356, 357, 358, 359, 360, 361, 362,
363, 364, 494, 495, 496, 497, 498, 499, 500, 501,
502, 503, 504, 505, 506, 507, 508, 509, 510, 511,
512, 513, 514, 515, 3117, 3118, 3119, 3120, 3121, 3122,
3123, 3124, 3125, 3126, 3127, 3128, 3129, 3130, 3131, 3132,
** ... 62 like lines cut
*NSET,NSET=ZMID_OUTER
496, 507, 3119, 3124, 3129, 3134, 3139, 3144, 3149, 3154,
3159, 3164, 3169, 3174, 3179, 3184, 3189, 3194, 3199, 3204,
3209, 3214, 3219, 3224, 3229, 3234, 3239, 3244, 3249, 3254,
3259, 3264, 3269, 3274, 3279, 3284, 3289, 3294, 3299, 3304,
3309, 3317, 3328, 3339, 3350, 3361, 3372, 3383, 3394, 3405,
3416, 3427, 3438, 3449, 3460, 3471, 3482, 3493, 3504, 3515,
3526, 3537, 3548, 3559, 3570, 3581, 3592, 3603, 3614, 3625,
3636, 3647, 3658, 3669, 3680, 3691, 3702, 3713, 3724, 3735,
3743
*SURFACE,NAME=TOP,TYPE=ELEMENT
2600, S2
2606, S2
2612, S2
2618, S2
2624, S2
2630, S2
2636, S2
2642, S2
2648, S2
2654, S2
2660, S2
2666, S2
2672, S2
2678, S2
2684, S2
2690, S2
2696, S2
2702, S2
2708, S2
2714, S2
** ... 780 like lines cut
*MATERIAL,NAME=STEEL
*ELASTIC
2.100000e+11, 0.3000
*SOLID SECTION,ELSET=BODY,MATERIAL=STEEL
*BOUNDARY
XSYM, 1, 1, 0.0
YSYM, 2, 2, 0.0
OUTER, 1, 1, 0.0
OUTER, 2, 2, 0.0
ZMID_OUTER, 3, 3, 0.0
*STEP
*STATIC
*DLOAD
TOP, P, 1.000000e+06
*EL FILE
S
*NODE FILE
U
*END STEP
