*HEADING
Tier 1 engineering candidate; not signed validation; not benchmark agreement.
Thick-walled pressure cylinder under internal pressure (Lame benchmark).
** Ri=100 Ro=150 mm, L=100 mm, p=10 MPa, SA-516 Gr.70, E=200 GPa, nu=0.3.
*NODE,NSET=NALL
       1,  0.00000000e+00,  0.00000000e+00,  0.00000000e+00
       2,  1.00000000e+02,  0.00000000e+00,  0.00000000e+00
       3,  1.50000000e+02,  0.00000000e+00,  0.00000000e+00
       4,  1.49429205e+02,  1.30733614e+01,  0.00000000e+00
       5,  9.96194698e+01,  8.71557427e+00,  0.00000000e+00
       6,  1.00000000e+02,  0.00000000e+00,  1.00000000e+02
       7,  1.50000000e+02,  0.00000000e+00,  1.00000000e+02
       8,  0.00000000e+00,  0.00000000e+00,  1.00000000e+02
       9,  1.49429205e+02,  1.30733614e+01,  1.00000000e+02
      10,  9.96194698e+01,  8.71557427e+00,  1.00000000e+02
      11,  1.06250000e+02,  0.00000000e+00,  0.00000000e+00
      12,  1.12500000e+02,  0.00000000e+00,  0.00000000e+00
      13,  1.18750000e+02,  0.00000000e+00,  0.00000000e+00
      14,  1.25000000e+02,  0.00000000e+00,  0.00000000e+00
      15,  1.31250000e+02,  0.00000000e+00,  0.00000000e+00
      16,  1.37500000e+02,  0.00000000e+00,  0.00000000e+00
      17,  1.43750000e+02,  0.00000000e+00,  0.00000000e+00
      18,  1.03125000e+02,  0.00000000e+00,  0.00000000e+00
      19,  1.09375000e+02,  0.00000000e+00,  0.00000000e+00
      20,  1.15625000e+02,  0.00000000e+00,  0.00000000e+00
** ... 269 like lines cut
*ELEMENT,TYPE=C3D20,ELSET=BODY
151, 2, 11, 33, 5, 75, 110, 204, 96,
     18, 103, 41, 42, 132, 269, 256, 259, 78, 131, 249, 99
152, 75, 110, 204, 96, 76, 111, 205, 97,
     132, 269, 256, 259, 134, 270, 257, 260, 79, 133, 251, 100
153, 76, 111, 205, 97, 77, 112, 206, 98,
     134, 270, 257, 260, 136, 271, 258, 261, 80, 135, 253, 101
154, 77, 112, 206, 98, 6, 43, 65, 10,
     136, 271, 258, 261, 50, 262, 73, 74, 81, 137, 255, 102
155, 11, 12, 32, 33, 110, 113, 201, 204,
     19, 104, 40, 103, 139, 272, 250, 269, 131, 138, 242, 249
156, 110, 113, 201, 204, 111, 114, 202, 205,
     139, 272, 250, 269, 141, 273, 252, 270, 133, 140, 244, 251
157, 111, 114, 202, 205, 112, 115, 203, 206,
     141, 273, 252, 270, 143, 274, 254, 271, 135, 142, 246, 253
158, 112, 115, 203, 206, 43, 44, 64, 65,
     143, 274, 254, 271, 51, 263, 72, 262, 137, 144, 248, 255
159, 12, 13, 31, 32, 113, 116, 198, 201,
     20, 105, 39, 104, 146, 275, 243, 272, 138, 145, 235, 242
160, 113, 116, 198, 201, 114, 117, 199, 202,
     146, 275, 243, 272, 148, 276, 245, 273, 140, 147, 237, 244
** ... 44 like lines cut
*NSET,NSET=INNER_SURF
2, 5, 6, 10, 42, 74, 75, 76, 77, 78,
79, 80, 81, 96, 97, 98, 99, 100, 101, 102,
259, 260, 261
*NSET,NSET=OUTER_SURF
3, 4, 7, 9, 26, 58, 82, 83, 84, 85,
86, 87, 88, 89, 90, 91, 92, 93, 94, 95,
183, 184, 185
*NSET,NSET=THETA0
1, 2, 3, 6, 7, 8, 11, 12, 13, 14,
15, 16, 17, 18, 19, 20, 21, 22, 23, 24,
25, 43, 44, 45, 46, 47, 48, 49, 50, 51,
52, 53, 54, 55, 56, 57, 75, 76, 77, 78,
79, 80, 81, 82, 83, 84, 85, 86, 87, 88,
110, 111, 112, 113, 114, 115, 116, 117, 118, 119,
120, 121, 122, 123, 124, 125, 126, 127, 128, 129,
130, 131, 132, 133, 134, 135, 136, 137, 138, 139,
140, 141, 142, 143, 144, 145, 146, 147, 148, 149,
150, 151, 152, 153, 154, 155, 156, 157, 158, 159,
160, 161, 162, 163, 164, 165, 166, 167, 168, 169,
170, 171, 172, 173, 174, 175, 176, 177, 178, 179,
180, 181, 182
*NSET,NSET=THETA5
1, 4, 5, 8, 9, 10, 27, 28, 29, 30,
31, 32, 33, 34, 35, 36, 37, 38, 39, 40,
41, 59, 60, 61, 62, 63, 64, 65, 66, 67,
68, 69, 70, 71, 72, 73, 89, 90, 91, 92,
93, 94, 95, 96, 97, 98, 99, 100, 101, 102,
186, 187, 188, 189, 190, 191, 192, 193, 194, 195,
196, 197, 198, 199, 200, 201, 202, 203, 204, 205,
206, 207, 208, 209, 210, 211, 212, 213, 214, 215,
216, 217, 218, 219, 220, 221, 222, 223, 224, 225,
226, 227, 228, 229, 230, 231, 232, 233, 234, 235,
236, 237, 238, 239, 240, 241, 242, 243, 244, 245,
246, 247, 248, 249, 250, 251, 252, 253, 254, 255,
256, 257, 258
*NSET,NSET=ZBOT
1, 2, 3, 4, 5, 11, 12, 13, 14, 15,
16, 17, 18, 19, 20, 21, 22, 23, 24, 25,
26, 27, 28, 29, 30, 31, 32, 33, 34, 35,
36, 37, 38, 39, 40, 41, 42, 103, 104, 105,
106, 107, 108, 109
*NSET,NSET=ZTOP
6, 7, 8, 9, 10, 43, 44, 45, 46, 47,
48, 49, 50, 51, 52, 53, 54, 55, 56, 57,
58, 59, 60, 61, 62, 63, 64, 65, 66, 67,
68, 69, 70, 71, 72, 73, 74, 262, 263, 264,
265, 266, 267, 268
*NSET,NSET=SCL_LINE
260
270
273
276
279
282
285
288
184
*SURFACE,NAME=SURF_INNER,TYPE=ELEMENT
151, S6
152, S6
153, S6
154, S6
*MATERIAL,NAME=SA516
*ELASTIC
2.000000e+05, 0.3000
*SOLID SECTION,ELSET=BODY,MATERIAL=SA516
** Reference node for closed-end plane-sections MPC.
*NODE,NSET=ZTOP_REF
290, 0.0, 0.0, 100.0
** Symmetry: theta=0 face -> uy=0; theta=5 face -> normal disp = 0.
*BOUNDARY
THETA0, 2, 2, 0.0
ZBOT, 3, 3, 0.0
** MPC: THETA5 normal-disp = 0; ZTOP plane-sections-remain-plane.
*EQUATION
2
1, 1, -0.08715574, 1, 2,  0.99619470
*EQUATION
2
4, 1, -0.08715574, 4, 2,  0.99619470
*EQUATION
2
5, 1, -0.08715574, 5, 2,  0.99619470
*EQUATION
2
8, 1, -0.08715574, 8, 2,  0.99619470
*EQUATION
2
9, 1, -0.08715574, 9, 2,  0.99619470
*EQUATION
2
10, 1, -0.08715574, 10, 2,  0.99619470
*EQUATION
2
27, 1, -0.08715574, 27, 2,  0.99619470
*EQUATION
2
28, 1, -0.08715574, 28, 2,  0.99619470
*EQUATION
2
29, 1, -0.08715574, 29, 2,  0.99619470
*EQUATION
2
30, 1, -0.08715574, 30, 2,  0.99619470
*EQUATION
2
31, 1, -0.08715574, 31, 2,  0.99619470
*EQUATION
2
32, 1, -0.08715574, 32, 2,  0.99619470
*EQUATION
2
33, 1, -0.08715574, 33, 2,  0.99619470
*EQUATION
2
34, 1, -0.08715574, 34, 2,  0.99619470
*EQUATION
2
35, 1, -0.08715574, 35, 2,  0.99619470
*EQUATION
2
36, 1, -0.08715574, 36, 2,  0.99619470
*EQUATION
2
37, 1, -0.08715574, 37, 2,  0.99619470
*EQUATION
2
38, 1, -0.08715574, 38, 2,  0.99619470
*EQUATION
2
39, 1, -0.08715574, 39, 2,  0.99619470
*EQUATION
2
40, 1, -0.08715574, 40, 2,  0.99619470
*EQUATION
2
41, 1, -0.08715574, 41, 2,  0.99619470
*EQUATION
2
59, 1, -0.08715574, 59, 2,  0.99619470
*EQUATION
2
60, 1, -0.08715574, 60, 2,  0.99619470
*EQUATION
2
61, 1, -0.08715574, 61, 2,  0.99619470
*EQUATION
2
62, 1, -0.08715574, 62, 2,  0.99619470
*EQUATION
2
63, 1, -0.08715574, 63, 2,  0.99619470
*EQUATION
2
64, 1, -0.08715574, 64, 2,  0.99619470
*EQUATION
2
65, 1, -0.08715574, 65, 2,  0.99619470
*EQUATION
2
66, 1, -0.08715574, 66, 2,  0.99619470
*EQUATION
2
67, 1, -0.08715574, 67, 2,  0.99619470
*EQUATION
2
68, 1, -0.08715574, 68, 2,  0.99619470
*EQUATION
2
69, 1, -0.08715574, 69, 2,  0.99619470
*EQUATION
2
70, 1, -0.08715574, 70, 2,  0.99619470
*EQUATION
2
71, 1, -0.08715574, 71, 2,  0.99619470
*EQUATION
2
72, 1, -0.08715574, 72, 2,  0.99619470
*EQUATION
2
73, 1, -0.08715574, 73, 2,  0.99619470
*EQUATION
2
89, 1, -0.08715574, 89, 2,  0.99619470
*EQUATION
2
90, 1, -0.08715574, 90, 2,  0.99619470
*EQUATION
2
91, 1, -0.08715574, 91, 2,  0.99619470
*EQUATION
2
92, 1, -0.08715574, 92, 2,  0.99619470
*EQUATION
2
93, 1, -0.08715574, 93, 2,  0.99619470
*EQUATION
2
94, 1, -0.08715574, 94, 2,  0.99619470
*EQUATION
2
95, 1, -0.08715574, 95, 2,  0.99619470
*EQUATION
2
96, 1, -0.08715574, 96, 2,  0.99619470
*EQUATION
2
97, 1, -0.08715574, 97, 2,  0.99619470
*EQUATION
2
98, 1, -0.08715574, 98, 2,  0.99619470
*EQUATION
2
99, 1, -0.08715574, 99, 2,  0.99619470
*EQUATION
2
100, 1, -0.08715574, 100, 2,  0.99619470
*EQUATION
2
101, 1, -0.08715574, 101, 2,  0.99619470
*EQUATION
2
102, 1, -0.08715574, 102, 2,  0.99619470
*EQUATION
2
186, 1, -0.08715574, 186, 2,  0.99619470
*EQUATION
2
187, 1, -0.08715574, 187, 2,  0.99619470
*EQUATION
2
188, 1, -0.08715574, 188, 2,  0.99619470
*EQUATION
2
189, 1, -0.08715574, 189, 2,  0.99619470
*EQUATION
2
190, 1, -0.08715574, 190, 2,  0.99619470
*EQUATION
2
191, 1, -0.08715574, 191, 2,  0.99619470
*EQUATION
2
192, 1, -0.08715574, 192, 2,  0.99619470
*EQUATION
2
193, 1, -0.08715574, 193, 2,  0.99619470
*EQUATION
2
194, 1, -0.08715574, 194, 2,  0.99619470
*EQUATION
2
195, 1, -0.08715574, 195, 2,  0.99619470
*EQUATION
2
196, 1, -0.08715574, 196, 2,  0.99619470
*EQUATION
2
197, 1, -0.08715574, 197, 2,  0.99619470
*EQUATION
2
198, 1, -0.08715574, 198, 2,  0.99619470
*EQUATION
2
199, 1, -0.08715574, 199, 2,  0.99619470
*EQUATION
2
200, 1, -0.08715574, 200, 2,  0.99619470
*EQUATION
2
201, 1, -0.08715574, 201, 2,  0.99619470
*EQUATION
2
202, 1, -0.08715574, 202, 2,  0.99619470
*EQUATION
2
203, 1, -0.08715574, 203, 2,  0.99619470
*EQUATION
2
204, 1, -0.08715574, 204, 2,  0.99619470
*EQUATION
2
205, 1, -0.08715574, 205, 2,  0.99619470
*EQUATION
2
206, 1, -0.08715574, 206, 2,  0.99619470
*EQUATION
2
207, 1, -0.08715574, 207, 2,  0.99619470
*EQUATION
2
208, 1, -0.08715574, 208, 2,  0.99619470
*EQUATION
2
209, 1, -0.08715574, 209, 2,  0.99619470
*EQUATION
2
210, 1, -0.08715574, 210, 2,  0.99619470
*EQUATION
2
211, 1, -0.08715574, 211, 2,  0.99619470
*EQUATION
2
212, 1, -0.08715574, 212, 2,  0.99619470
*EQUATION
2
213, 1, -0.08715574, 213, 2,  0.99619470
*EQUATION
2
214, 1, -0.08715574, 214, 2,  0.99619470
*EQUATION
2
215, 1, -0.08715574, 215, 2,  0.99619470
*EQUATION
2
216, 1, -0.08715574, 216, 2,  0.99619470
*EQUATION
2
217, 1, -0.08715574, 217, 2,  0.99619470
*EQUATION
2
218, 1, -0.08715574, 218, 2,  0.99619470
*EQUATION
2
219, 1, -0.08715574, 219, 2,  0.99619470
*EQUATION
2
220, 1, -0.08715574, 220, 2,  0.99619470
*EQUATION
2
221, 1, -0.08715574, 221, 2,  0.99619470
*EQUATION
2
222, 1, -0.08715574, 222, 2,  0.99619470
*EQUATION
2
223, 1, -0.08715574, 223, 2,  0.99619470
*EQUATION
2
224, 1, -0.08715574, 224, 2,  0.99619470
*EQUATION
2
225, 1, -0.08715574, 225, 2,  0.99619470
*EQUATION
2
226, 1, -0.08715574, 226, 2,  0.99619470
*EQUATION
2
227, 1, -0.08715574, 227, 2,  0.99619470
*EQUATION
2
228, 1, -0.08715574, 228, 2,  0.99619470
*EQUATION
2
229, 1, -0.08715574, 229, 2,  0.99619470
*EQUATION
2
230, 1, -0.08715574, 230, 2,  0.99619470
*EQUATION
2
231, 1, -0.08715574, 231, 2,  0.99619470
*EQUATION
2
232, 1, -0.08715574, 232, 2,  0.99619470
*EQUATION
2
233, 1, -0.08715574, 233, 2,  0.99619470
*EQUATION
2
234, 1, -0.08715574, 234, 2,  0.99619470
*EQUATION
2
235, 1, -0.08715574, 235, 2,  0.99619470
*EQUATION
2
236, 1, -0.08715574, 236, 2,  0.99619470
*EQUATION
2
237, 1, -0.08715574, 237, 2,  0.99619470
*EQUATION
2
238, 1, -0.08715574, 238, 2,  0.99619470
*EQUATION
2
239, 1, -0.08715574, 239, 2,  0.99619470
*EQUATION
2
240, 1, -0.08715574, 240, 2,  0.99619470
*EQUATION
2
241, 1, -0.08715574, 241, 2,  0.99619470
*EQUATION
2
242, 1, -0.08715574, 242, 2,  0.99619470
*EQUATION
2
243, 1, -0.08715574, 243, 2,  0.99619470
*EQUATION
2
244, 1, -0.08715574, 244, 2,  0.99619470
*EQUATION
2
245, 1, -0.08715574, 245, 2,  0.99619470
*EQUATION
2
246, 1, -0.08715574, 246, 2,  0.99619470
*EQUATION
2
247, 1, -0.08715574, 247, 2,  0.99619470
*EQUATION
2
248, 1, -0.08715574, 248, 2,  0.99619470
*EQUATION
2
249, 1, -0.08715574, 249, 2,  0.99619470
*EQUATION
2
250, 1, -0.08715574, 250, 2,  0.99619470
*EQUATION
2
251, 1, -0.08715574, 251, 2,  0.99619470
*EQUATION
2
252, 1, -0.08715574, 252, 2,  0.99619470
*EQUATION
2
253, 1, -0.08715574, 253, 2,  0.99619470
*EQUATION
2
254, 1, -0.08715574, 254, 2,  0.99619470
*EQUATION
2
255, 1, -0.08715574, 255, 2,  0.99619470
*EQUATION
2
256, 1, -0.08715574, 256, 2,  0.99619470
*EQUATION
2
257, 1, -0.08715574, 257, 2,  0.99619470
*EQUATION
2
258, 1, -0.08715574, 258, 2,  0.99619470
*EQUATION
2
6, 3, 1.0, 290, 3, -1.0
*EQUATION
2
7, 3, 1.0, 290, 3, -1.0
*EQUATION
2
8, 3, 1.0, 290, 3, -1.0
*EQUATION
2
9, 3, 1.0, 290, 3, -1.0
*EQUATION
2
10, 3, 1.0, 290, 3, -1.0
*EQUATION
2
43, 3, 1.0, 290, 3, -1.0
*EQUATION
2
44, 3, 1.0, 290, 3, -1.0
*EQUATION
2
45, 3, 1.0, 290, 3, -1.0
*EQUATION
2
46, 3, 1.0, 290, 3, -1.0
*EQUATION
2
47, 3, 1.0, 290, 3, -1.0
*EQUATION
2
48, 3, 1.0, 290, 3, -1.0
*EQUATION
2
49, 3, 1.0, 290, 3, -1.0
*EQUATION
2
50, 3, 1.0, 290, 3, -1.0
*EQUATION
2
51, 3, 1.0, 290, 3, -1.0
*EQUATION
2
52, 3, 1.0, 290, 3, -1.0
*EQUATION
2
53, 3, 1.0, 290, 3, -1.0
*EQUATION
2
54, 3, 1.0, 290, 3, -1.0
*EQUATION
2
55, 3, 1.0, 290, 3, -1.0
*EQUATION
2
56, 3, 1.0, 290, 3, -1.0
*EQUATION
2
57, 3, 1.0, 290, 3, -1.0
*EQUATION
2
58, 3, 1.0, 290, 3, -1.0
*EQUATION
2
59, 3, 1.0, 290, 3, -1.0
*EQUATION
2
60, 3, 1.0, 290, 3, -1.0
*EQUATION
2
61, 3, 1.0, 290, 3, -1.0
*EQUATION
2
62, 3, 1.0, 290, 3, -1.0
*EQUATION
2
63, 3, 1.0, 290, 3, -1.0
*EQUATION
2
64, 3, 1.0, 290, 3, -1.0
*EQUATION
2
65, 3, 1.0, 290, 3, -1.0
*EQUATION
2
66, 3, 1.0, 290, 3, -1.0
*EQUATION
2
67, 3, 1.0, 290, 3, -1.0
*EQUATION
2
68, 3, 1.0, 290, 3, -1.0
*EQUATION
2
69, 3, 1.0, 290, 3, -1.0
*EQUATION
2
70, 3, 1.0, 290, 3, -1.0
*EQUATION
2
71, 3, 1.0, 290, 3, -1.0
*EQUATION
2
72, 3, 1.0, 290, 3, -1.0
*EQUATION
2
73, 3, 1.0, 290, 3, -1.0
*EQUATION
2
74, 3, 1.0, 290, 3, -1.0
*EQUATION
2
262, 3, 1.0, 290, 3, -1.0
*EQUATION
2
263, 3, 1.0, 290, 3, -1.0
*EQUATION
2
264, 3, 1.0, 290, 3, -1.0
*EQUATION
2
265, 3, 1.0, 290, 3, -1.0
*EQUATION
2
266, 3, 1.0, 290, 3, -1.0
*EQUATION
2
267, 3, 1.0, 290, 3, -1.0
*EQUATION
2
268, 3, 1.0, 290, 3, -1.0
*STEP,NLGEOM=NO
*STATIC
** Internal pressure 10.0 MPa on bore + total axial 4363.3231 N on ref node.
*DLOAD
SURF_INNER, P, 10.0
*CLOAD
290, 3, 4.363323e+03
*EL FILE
S
*NODE FILE
U
*END STEP
