*HEADING
FM-04a Phase 31 A heat transfer cross-check
*NODE
1, 0.000000000e+00, 0.000000000e+00, 0.000000000e+00
2, 1.000000000e-02, 0.000000000e+00, 0.000000000e+00
3, 2.000000000e-02, 0.000000000e+00, 0.000000000e+00
4, 3.000000000e-02, 0.000000000e+00, 0.000000000e+00
5, 4.000000000e-02, 0.000000000e+00, 0.000000000e+00
6, 5.000000000e-02, 0.000000000e+00, 0.000000000e+00
7, 6.000000000e-02, 0.000000000e+00, 0.000000000e+00
8, 7.000000000e-02, 0.000000000e+00, 0.000000000e+00
9, 8.000000000e-02, 0.000000000e+00, 0.000000000e+00
10, 9.000000000e-02, 0.000000000e+00, 0.000000000e+00
11, 1.000000000e-01, 0.000000000e+00, 0.000000000e+00
12, 0.000000000e+00, 1.000000000e-02, 0.000000000e+00
13, 1.000000000e-02, 1.000000000e-02, 0.000000000e+00
14, 2.000000000e-02, 1.000000000e-02, 0.000000000e+00
15, 3.000000000e-02, 1.000000000e-02, 0.000000000e+00
16, 4.000000000e-02, 1.000000000e-02, 0.000000000e+00
17, 5.000000000e-02, 1.000000000e-02, 0.000000000e+00
18, 6.000000000e-02, 1.000000000e-02, 0.000000000e+00
19, 7.000000000e-02, 1.000000000e-02, 0.000000000e+00
20, 8.000000000e-02, 1.000000000e-02, 0.000000000e+00
** ... 79 like lines cut
*ELEMENT, TYPE=C3D8, ELSET=BAR
1, 1, 2, 13, 12, 34, 35, 46, 45
2, 2, 3, 14, 13, 35, 36, 47, 46
3, 3, 4, 15, 14, 36, 37, 48, 47
4, 4, 5, 16, 15, 37, 38, 49, 48
5, 5, 6, 17, 16, 38, 39, 50, 49
6, 6, 7, 18, 17, 39, 40, 51, 50
7, 7, 8, 19, 18, 40, 41, 52, 51
8, 8, 9, 20, 19, 41, 42, 53, 52
9, 9, 10, 21, 20, 42, 43, 54, 53
10, 10, 11, 22, 21, 43, 44, 55, 54
11, 12, 13, 24, 23, 45, 46, 57, 56
12, 13, 14, 25, 24, 46, 47, 58, 57
13, 14, 15, 26, 25, 47, 48, 59, 58
14, 15, 16, 27, 26, 48, 49, 60, 59
15, 16, 17, 28, 27, 49, 50, 61, 60
16, 17, 18, 29, 28, 50, 51, 62, 61
17, 18, 19, 30, 29, 51, 52, 63, 62
18, 19, 20, 31, 30, 52, 53, 64, 63
19, 20, 21, 32, 31, 53, 54, 65, 64
20, 21, 22, 33, 32, 54, 55, 66, 65
** ... 20 like lines cut
*NSET, NSET=LEFT
1, 12, 23, 34, 45, 56, 67, 78
89
*NSET, NSET=RIGHT
11, 22, 33, 44, 55, 66, 77, 88
99
*NSET, NSET=ALL_NODES
1, 2, 3, 4, 5, 6, 7, 8
9, 10, 11, 12, 13, 14, 15, 16
17, 18, 19, 20, 21, 22, 23, 24
25, 26, 27, 28, 29, 30, 31, 32
33, 34, 35, 36, 37, 38, 39, 40
41, 42, 43, 44, 45, 46, 47, 48
49, 50, 51, 52, 53, 54, 55, 56
57, 58, 59, 60, 61, 62, 63, 64
65, 66, 67, 68, 69, 70, 71, 72
73, 74, 75, 76, 77, 78, 79, 80
81, 82, 83, 84, 85, 86, 87, 88
89, 90, 91, 92, 93, 94, 95, 96
97, 98, 99
*MATERIAL, NAME=STEEL_HT
*CONDUCTIVITY
5.000000e+01
*SOLID SECTION, ELSET=BAR, MATERIAL=STEEL_HT
*INITIAL CONDITIONS, TYPE=TEMPERATURE
ALL_NODES, 2.931500e+02
*PHYSICAL CONSTANTS, ABSOLUTE ZERO=0.0
*STEP
*HEAT TRANSFER, STEADY STATE
*BOUNDARY
LEFT, 11, 11, 3.731500e+02
RIGHT, 11, 11, 2.731500e+02
*NODE PRINT, NSET=ALL_NODES
NT
*END STEP
