*HEADING
NAFEMS LE11 solid cyl/taper/sphere temperature - real ccx thermal-stress solve (m/Pa/degC).
*NODE,NSET=NALL
       1,  0.000000000e+00,  0.000000000e+00,  0.000000000e+00
       2,  1.000000000e+00,  0.000000000e+00,  0.000000000e+00
       3,  1.400000000e+00,  0.000000000e+00,  0.000000000e+00
       4,  7.071067812e-01,  0.000000000e+00,  7.071067812e-01
       5,  1.208304597e+00,  0.000000000e+00,  7.071067812e-01
       6,  7.071067812e-01,  0.000000000e+00,  1.397106781e+00
       7,  1.000000000e+00,  0.000000000e+00,  1.397106781e+00
       8,  7.071067812e-01,  0.000000000e+00,  1.797106781e+00
       9,  1.000000000e+00,  0.000000000e+00,  1.797106781e+00
      10,  8.572527594e-17,  1.400000000e+00,  0.000000000e+00
      11,  6.123233996e-17,  1.000000000e+00,  0.000000000e+00
      12,  4.329780281e-17,  7.071067812e-01,  7.071067812e-01
      13,  7.398731788e-17,  1.208304597e+00,  7.071067812e-01
      14,  0.000000000e+00,  0.000000000e+00,  7.071067812e-01
      15,  4.329780281e-17,  7.071067812e-01,  1.397106781e+00
      16,  6.123233996e-17,  1.000000000e+00,  1.397106781e+00
      17,  0.000000000e+00,  0.000000000e+00,  1.397106781e+00
      18,  4.329780281e-17,  7.071067812e-01,  1.797106781e+00
      19,  6.123233996e-17,  1.000000000e+00,  1.797106781e+00
      20,  0.000000000e+00,  0.000000000e+00,  1.797106781e+00
** ... 26201 like lines cut
*ELEMENT,TYPE=C3D20,ELSET=BODY
3013, 3, 206, 729, 52, 343, 1652, 7785, 3031,
     213, 834, 835, 67, 1758, 9361, 9362, 3256, 358, 1757, 9360, 3257
3014, 343, 1652, 7785, 3031, 344, 1653, 7786, 3032,
     1758, 9361, 9362, 3256, 1760, 9364, 9365, 3258, 359, 1759, 9363, 3259
3015, 344, 1653, 7786, 3032, 345, 1654, 7787, 3033,
     1760, 9364, 9365, 3258, 1762, 9367, 9368, 3260, 360, 1761, 9366, 3261
3016, 345, 1654, 7787, 3033, 346, 1655, 7788, 3034,
     1762, 9367, 9368, 3260, 1764, 9370, 9371, 3262, 361, 1763, 9369, 3263
3017, 346, 1655, 7788, 3034, 347, 1656, 7789, 3035,
     1764, 9370, 9371, 3262, 1766, 9373, 9374, 3264, 362, 1765, 9372, 3265
3018, 347, 1656, 7789, 3035, 348, 1657, 7790, 3036,
     1766, 9373, 9374, 3264, 1768, 9376, 9377, 3266, 363, 1767, 9375, 3267
3019, 348, 1657, 7790, 3036, 349, 1658, 7791, 3037,
     1768, 9376, 9377, 3266, 1770, 9379, 9380, 3268, 364, 1769, 9378, 3269
3020, 349, 1658, 7791, 3037, 350, 1659, 7792, 3038,
     1770, 9379, 9380, 3268, 1772, 9382, 9383, 3270, 365, 1771, 9381, 3271
3021, 350, 1659, 7792, 3038, 351, 1660, 7793, 3039,
     1772, 9382, 9383, 3270, 1774, 9385, 9386, 3272, 366, 1773, 9384, 3273
3022, 351, 1660, 7793, 3039, 352, 1661, 7794, 3040,
     1774, 9385, 9386, 3272, 1776, 9388, 9389, 3274, 367, 1775, 9387, 3275
** ... 11244 like lines cut
*NSET,NSET=XSYM
1, 10, 11, 12, 13, 14, 15, 16, 17, 18,
19, 20, 251, 252, 253, 254, 255, 256, 257, 258,
259, 260, 261, 262, 263, 264, 265, 266, 267, 268,
269, 270, 271, 272, 273, 274, 275, 276, 277, 278,
279, 280, 281, 282, 283, 284, 285, 286, 287, 288,
289, 290, 291, 292, 293, 294, 295, 296, 297, 298,
299, 300, 301, 302, 303, 304, 305, 306, 307, 308,
309, 310, 311, 312, 313, 314, 315, 316, 317, 318,
319, 320, 321, 322, 323, 324, 325, 326, 327, 328,
329, 330, 331, 332, 333, 334, 335, 336, 337, 338,
339, 340, 341, 342, 467, 468, 469, 470, 471, 472,
473, 474, 475, 476, 477, 478, 479, 480, 481, 482,
483, 484, 485, 486, 487, 488, 489, 490, 491, 492,
493, 494, 495, 496, 497, 498, 499, 500, 501, 502,
503, 504, 505, 506, 507, 508, 509, 510, 511, 512,
513, 514, 515, 516, 517, 518, 519, 520, 521, 522,
523, 524, 525, 526, 527, 528, 529, 530, 531, 532,
533, 534, 535, 536, 537, 538, 539, 540, 541, 542,
543, 544, 545, 546, 547, 548, 549, 550, 551, 552,
553, 554, 555, 556, 557, 558, 559, 622, 623, 624,
** ... 97 like lines cut
*NSET,NSET=YSYM
1, 2, 3, 4, 5, 6, 7, 8, 9, 14,
17, 20, 21, 22, 23, 24, 25, 26, 27, 28,
29, 30, 31, 32, 33, 34, 35, 36, 37, 38,
39, 40, 41, 42, 43, 44, 45, 46, 47, 48,
49, 50, 51, 52, 53, 54, 55, 56, 57, 58,
59, 60, 61, 62, 63, 64, 65, 66, 67, 68,
69, 70, 71, 72, 73, 74, 75, 76, 77, 78,
79, 80, 81, 82, 83, 84, 85, 86, 87, 88,
89, 90, 91, 92, 93, 94, 95, 96, 97, 98,
99, 100, 101, 102, 103, 104, 105, 106, 107, 108,
109, 110, 111, 112, 113, 114, 115, 116, 117, 118,
119, 120, 121, 122, 123, 124, 125, 126, 127, 128,
129, 130, 131, 132, 133, 134, 135, 136, 137, 138,
139, 140, 141, 142, 143, 144, 145, 146, 147, 148,
149, 150, 151, 152, 153, 154, 155, 156, 157, 158,
159, 160, 161, 162, 163, 164, 165, 166, 167, 168,
169, 170, 171, 172, 173, 174, 175, 176, 177, 178,
179, 180, 181, 182, 183, 184, 185, 186, 187, 188,
189, 190, 191, 192, 193, 194, 195, 196, 197, 198,
199, 200, 201, 202, 203, 204, 205, 206, 207, 208,
** ... 97 like lines cut
*NSET,NSET=ZBOT
1, 2, 3, 10, 11, 206, 207, 208, 209, 210,
211, 212, 213, 214, 215, 216, 217, 218, 219, 220,
251, 252, 253, 254, 255, 256, 257, 258, 259, 260,
261, 262, 263, 264, 265, 343, 344, 345, 346, 347,
348, 349, 350, 351, 352, 353, 354, 355, 356, 357,
358, 359, 360, 361, 362, 363, 364, 365, 366, 367,
368, 369, 370, 371, 372, 373, 374, 375, 376, 377,
378, 379, 380, 381, 382, 383, 384, 385, 386, 387,
388, 389, 390, 391, 392, 393, 394, 395, 396, 397,
398, 399, 400, 401, 402, 403, 404, 1652, 1653, 1654,
1655, 1656, 1657, 1658, 1659, 1660, 1661, 1662, 1663, 1664,
1665, 1666, 1667, 1668, 1669, 1670, 1671, 1672, 1673, 1674,
1675, 1676, 1677, 1678, 1679, 1680, 1681, 1682, 1683, 1684,
1685, 1686, 1687, 1688, 1689, 1690, 1691, 1692, 1693, 1694,
1695, 1696, 1697, 1698, 1699, 1700, 1701, 1702, 1703, 1704,
1705, 1706, 1707, 1708, 1709, 1710, 1711, 1712, 1713, 1714,
1715, 1716, 1717, 1718, 1719, 1720, 1721, 1722, 1723, 1724,
1725, 1726, 1727, 1728, 1729, 1730, 1731, 1732, 1733, 1734,
1735, 1736, 1737, 1738, 1739, 1740, 1741, 1742, 1743, 1744,
1745, 1746, 1747, 1748, 1749, 1750, 1751, 1752, 1753, 1754,
** ... 24 like lines cut
*NSET,NSET=ZTOP
8, 9, 18, 19, 20, 137, 138, 139, 140, 141,
142, 143, 144, 145, 146, 147, 148, 149, 150, 151,
637, 638, 639, 640, 641, 642, 643, 644, 645, 646,
647, 648, 649, 650, 651, 667, 668, 669, 670, 671,
672, 673, 674, 675, 676, 677, 678, 679, 680, 681,
682, 683, 684, 685, 686, 687, 688, 689, 690, 691,
692, 693, 694, 695, 696, 697, 698, 699, 700, 701,
702, 703, 704, 705, 706, 707, 708, 709, 710, 711,
712, 713, 714, 715, 716, 717, 718, 719, 720, 721,
722, 723, 724, 725, 726, 727, 728, 6950, 6951, 6952,
6953, 6954, 6955, 6956, 6957, 6958, 6959, 6960, 6961, 6962,
6963, 6964, 6965, 6966, 6967, 6968, 6969, 6970, 6971, 6972,
6973, 6974, 6975, 6976, 6977, 6978, 6979, 6980, 6981, 6982,
6983, 6984, 6985, 6986, 6987, 6988, 6989, 6990, 6991, 6992,
6993, 6994, 6995, 6996, 6997, 6998, 6999, 7000, 7001, 7002,
7003, 7004, 7005, 7006, 7007, 7008, 7009, 7010, 7011, 7012,
7013, 7014, 7015, 7016, 7017, 7018, 7019, 7020, 7021, 7022,
7023, 7024, 7025, 7026, 7027, 7028, 7029, 7030, 7031, 7032,
7033, 7034, 7035, 7036, 7037, 7038, 7039, 7040, 7041, 7042,
7043, 7044, 7045, 7046, 7047, 7048, 7049, 7050, 7051, 7052,
** ... 24 like lines cut
*MATERIAL,NAME=STEEL
*ELASTIC
2.100000e+11, 0.3000
*EXPANSION,ZERO=0.0
2.300000e-04
*SOLID SECTION,ELSET=BODY,MATERIAL=STEEL
*INITIAL CONDITIONS,TYPE=TEMPERATURE
NALL, 0.0000
*STEP
*STATIC
*BOUNDARY
XSYM, 1, 1, 0.0
YSYM, 2, 2, 0.0
ZBOT, 3, 3, 0.0
ZTOP, 3, 3, 0.0
*TEMPERATURE
1, 0.000000000e+00
2, 1.000000000e+00
3, 1.400000000e+00
4, 1.414213562e+00
5, 1.915411379e+00
6, 2.104213562e+00
7, 2.397106781e+00
8, 2.504213562e+00
9, 2.797106781e+00
10, 1.400000000e+00
11, 1.000000000e+00
12, 1.414213562e+00
13, 1.915411379e+00
14, 7.071067812e-01
15, 2.104213562e+00
16, 2.397106781e+00
17, 1.397106781e+00
18, 2.504213562e+00
19, 2.797106781e+00
20, 1.797106781e+00
** ... 26201 like lines cut
*EL FILE
S
*NODE FILE
U
*END STEP
